*SPEF "ieee 1481-1999"
*DESIGN "async4bituc"
*DATE "11:11:11 Fri 11 11, 1111"
*VENDOR "OpenRCX"
*PROGRAM "Parallel Extraction"
*VERSION "1.0"
*DESIGN_FLOW "NAME_SCOPE LOCAL" "PIN_CAP NONE"
*DIVIDER /
*DELIMITER :
*BUS_DELIMITER []
*T_UNIT 1 NS
*C_UNIT 1 PF
*R_UNIT 1 OHM
*L_UNIT 1 HENRY

*NAME_MAP
*3 inter1
*4 out
*5 vref
*6 adc1
*7 osc1
*8 PHY_0
*9 PHY_1
*10 PHY_2
*11 PHY_3
*12 PHY_4
*13 PHY_5
*14 PHY_6
*15 PHY_7
*16 PHY_8
*17 PHY_9
*18 PHY_10
*19 PHY_11
*20 PHY_12
*21 PHY_13
*22 PHY_14
*23 PHY_15
*24 PHY_16
*25 PHY_17
*26 PHY_18
*27 PHY_19
*28 PHY_20
*29 PHY_21
*30 PHY_22
*31 PHY_23
*32 PHY_24
*33 PHY_25
*34 PHY_26
*35 PHY_27
*36 PHY_28
*37 PHY_29
*38 PHY_30
*39 PHY_31
*40 PHY_32
*41 PHY_33
*42 PHY_34
*43 PHY_35
*44 PHY_36
*45 PHY_37
*46 PHY_38
*47 PHY_39
*48 PHY_40
*49 PHY_41
*50 PHY_42
*51 PHY_43
*52 PHY_44
*53 PHY_45
*54 PHY_46
*55 PHY_47
*56 PHY_48
*57 PHY_49
*58 PHY_50
*59 PHY_51
*60 PHY_52
*61 PHY_53
*62 PHY_54
*63 PHY_55
*64 PHY_56
*65 PHY_57
*66 PHY_58
*67 PHY_59
*68 PHY_60
*69 PHY_61
*70 PHY_62
*71 PHY_63
*72 PHY_64
*73 PHY_65
*74 PHY_66
*75 PHY_67
*76 PHY_68
*77 PHY_69
*78 PHY_70
*79 PHY_71
*80 PHY_72
*81 PHY_73
*82 PHY_74
*83 PHY_75
*84 PHY_76
*85 PHY_77
*86 PHY_78
*87 PHY_79
*88 PHY_80
*89 PHY_81
*90 PHY_82
*91 PHY_83
*92 PHY_84
*93 PHY_85
*94 PHY_86
*95 PHY_87
*96 PHY_88
*97 PHY_89
*98 PHY_90
*99 PHY_91
*100 PHY_92
*101 PHY_93
*102 PHY_94
*103 PHY_95
*104 PHY_96
*105 PHY_97
*106 PHY_98
*107 PHY_99
*108 PHY_100
*109 PHY_101
*110 TAP_102
*111 TAP_103
*112 TAP_104
*113 TAP_105
*114 TAP_106
*115 TAP_107
*116 TAP_108
*117 TAP_109
*118 TAP_110
*119 TAP_111
*120 TAP_112
*121 TAP_113
*122 TAP_114
*123 TAP_115
*124 TAP_116
*125 TAP_117
*126 TAP_118
*127 TAP_119
*128 TAP_120
*129 TAP_121
*130 TAP_122
*131 TAP_123
*132 TAP_124
*133 TAP_125
*134 TAP_126
*135 TAP_127
*136 TAP_128
*137 TAP_129
*138 TAP_130
*139 TAP_131
*140 TAP_132
*141 TAP_133
*142 TAP_134
*143 TAP_135
*144 TAP_136
*145 TAP_137
*146 TAP_138
*147 TAP_139
*148 TAP_140
*149 TAP_141
*150 TAP_142
*151 TAP_143
*152 TAP_144
*153 TAP_145
*154 TAP_146
*155 TAP_147
*156 TAP_148
*157 TAP_149
*158 TAP_150
*159 TAP_151
*160 TAP_152
*161 TAP_153
*162 TAP_154
*163 TAP_155
*164 TAP_156
*165 TAP_157
*166 TAP_158
*167 TAP_159
*168 TAP_160
*169 TAP_161
*170 TAP_162
*171 TAP_163
*172 TAP_164
*173 FILLER_0_4
*174 FILLER_0_12
*175 FILLER_0_20
*176 FILLER_0_28
*177 FILLER_0_31
*178 FILLER_0_39
*179 FILLER_0_47
*180 FILLER_0_55
*181 FILLER_0_59
*182 FILLER_0_61
*183 FILLER_0_69
*184 FILLER_0_77
*185 FILLER_0_85
*186 FILLER_0_89
*187 FILLER_0_91
*188 FILLER_0_99
*189 FILLER_0_107
*190 FILLER_0_115
*191 FILLER_0_119
*192 FILLER_0_121
*193 FILLER_0_129
*194 FILLER_0_137
*195 FILLER_0_145
*196 FILLER_0_149
*197 FILLER_0_151
*198 FILLER_0_159
*199 FILLER_0_167
*200 FILLER_1_4
*201 FILLER_1_12
*202 FILLER_1_20
*203 FILLER_1_28
*204 FILLER_1_36
*205 FILLER_1_44
*206 FILLER_1_52
*207 FILLER_1_61
*208 FILLER_1_69
*209 FILLER_1_77
*210 FILLER_1_85
*211 FILLER_1_93
*212 FILLER_1_101
*213 FILLER_1_109
*214 FILLER_1_117
*215 FILLER_1_119
*216 FILLER_1_121
*217 FILLER_1_129
*218 FILLER_1_137
*219 FILLER_1_145
*220 FILLER_1_153
*221 FILLER_1_161
*222 FILLER_2_4
*223 FILLER_2_12
*224 FILLER_2_20
*225 FILLER_2_28
*226 FILLER_2_31
*227 FILLER_2_39
*228 FILLER_2_47
*229 FILLER_2_55
*230 FILLER_2_63
*231 FILLER_2_71
*232 FILLER_2_79
*233 FILLER_2_87
*234 FILLER_2_89
*235 FILLER_2_91
*236 FILLER_2_99
*237 FILLER_2_107
*238 FILLER_2_115
*239 FILLER_2_123
*240 FILLER_2_131
*241 FILLER_2_139
*242 FILLER_2_147
*243 FILLER_2_149
*244 FILLER_2_151
*245 FILLER_2_159
*246 FILLER_2_167
*247 FILLER_3_4
*248 FILLER_3_12
*249 FILLER_3_20
*250 FILLER_3_28
*251 FILLER_3_31
*252 FILLER_3_39
*253 FILLER_3_47
*254 FILLER_3_55
*255 FILLER_3_59
*256 FILLER_3_61
*257 FILLER_3_69
*258 FILLER_3_77
*259 FILLER_3_85
*260 FILLER_3_89
*261 FILLER_3_91
*262 FILLER_3_99
*263 FILLER_3_107
*264 FILLER_3_115
*265 FILLER_3_119
*266 FILLER_3_121
*267 FILLER_3_129
*268 FILLER_3_137
*269 FILLER_3_145
*270 FILLER_3_149
*271 FILLER_3_151
*272 FILLER_3_159
*273 FILLER_3_167
*274 FILLER_4_4
*275 FILLER_4_12
*276 FILLER_4_20
*277 FILLER_4_28
*278 FILLER_4_31
*279 FILLER_4_33
*280 FILLER_4_97
*281 FILLER_4_105
*282 FILLER_4_113
*283 FILLER_4_121
*284 FILLER_4_124
*285 FILLER_4_132
*286 FILLER_4_140
*287 FILLER_4_148
*288 FILLER_4_156
*289 FILLER_4_164
*290 FILLER_4_168
*291 FILLER_5_4
*292 FILLER_5_12
*293 FILLER_5_20
*294 FILLER_5_28
*295 FILLER_5_32
*296 FILLER_5_97
*297 FILLER_5_105
*298 FILLER_5_113
*299 FILLER_5_121
*300 FILLER_5_129
*301 FILLER_5_137
*302 FILLER_5_145
*303 FILLER_5_154
*304 FILLER_5_162
*305 FILLER_5_166
*306 FILLER_5_168
*307 FILLER_6_4
*308 FILLER_6_12
*309 FILLER_6_20
*310 FILLER_6_28
*311 FILLER_6_31
*312 FILLER_6_33
*313 FILLER_6_97
*314 FILLER_6_105
*315 FILLER_6_113
*316 FILLER_6_121
*317 FILLER_6_124
*318 FILLER_6_132
*319 FILLER_6_140
*320 FILLER_6_148
*321 FILLER_6_156
*322 FILLER_6_164
*323 FILLER_6_168
*324 FILLER_7_4
*325 FILLER_7_12
*326 FILLER_7_20
*327 FILLER_7_28
*328 FILLER_7_32
*329 FILLER_7_97
*330 FILLER_7_105
*331 FILLER_7_113
*332 FILLER_7_121
*333 FILLER_7_129
*334 FILLER_7_137
*335 FILLER_7_145
*336 FILLER_7_154
*337 FILLER_7_162
*338 FILLER_7_166
*339 FILLER_7_168
*340 FILLER_8_4
*341 FILLER_8_12
*342 FILLER_8_20
*343 FILLER_8_28
*344 FILLER_8_31
*345 FILLER_8_33
*346 FILLER_8_97
*347 FILLER_8_105
*348 FILLER_8_113
*349 FILLER_8_121
*350 FILLER_8_124
*351 FILLER_8_132
*352 FILLER_8_140
*353 FILLER_8_148
*354 FILLER_8_156
*355 FILLER_8_164
*356 FILLER_8_168
*357 FILLER_9_4
*358 FILLER_9_12
*359 FILLER_9_20
*360 FILLER_9_28
*361 FILLER_9_32
*362 FILLER_9_97
*363 FILLER_9_105
*364 FILLER_9_113
*365 FILLER_9_121
*366 FILLER_9_129
*367 FILLER_9_137
*368 FILLER_9_145
*369 FILLER_9_154
*370 FILLER_9_162
*371 FILLER_9_166
*372 FILLER_9_168
*373 FILLER_10_4
*374 FILLER_10_12
*375 FILLER_10_20
*376 FILLER_10_28
*377 FILLER_10_31
*378 FILLER_10_33
*379 FILLER_10_97
*380 FILLER_10_105
*381 FILLER_10_113
*382 FILLER_10_121
*383 FILLER_10_124
*384 FILLER_10_132
*385 FILLER_10_140
*386 FILLER_10_148
*387 FILLER_10_152
*388 FILLER_10_154
*389 FILLER_10_162
*390 FILLER_10_166
*391 FILLER_10_168
*392 FILLER_11_4
*393 FILLER_11_12
*394 FILLER_11_20
*395 FILLER_11_28
*396 FILLER_11_32
*397 FILLER_11_97
*398 FILLER_11_105
*399 FILLER_11_109
*400 FILLER_11_147
*401 FILLER_11_155
*402 FILLER_11_163
*403 FILLER_11_167
*404 FILLER_12_4
*405 FILLER_12_12
*406 FILLER_12_20
*407 FILLER_12_28
*408 FILLER_12_31
*409 FILLER_12_39
*410 FILLER_12_47
*411 FILLER_12_55
*412 FILLER_12_59
*413 FILLER_12_61
*414 FILLER_12_69
*415 FILLER_12_77
*416 FILLER_12_85
*417 FILLER_12_89
*418 FILLER_12_91
*419 FILLER_12_99
*420 FILLER_12_107
*421 FILLER_12_109
*422 FILLER_12_147
*423 FILLER_12_155
*424 FILLER_12_163
*425 FILLER_12_167
*426 FILLER_13_4
*427 FILLER_13_12
*428 FILLER_13_20
*429 FILLER_13_28
*430 FILLER_13_36
*431 FILLER_13_44
*432 FILLER_13_52
*433 FILLER_13_61
*434 FILLER_13_69
*435 FILLER_13_77
*436 FILLER_13_85
*437 FILLER_13_93
*438 FILLER_13_101
*439 FILLER_13_109
*440 FILLER_13_147
*441 FILLER_13_155
*442 FILLER_13_163
*443 FILLER_13_167
*444 FILLER_14_4
*445 FILLER_14_12
*446 FILLER_14_20
*447 FILLER_14_28
*448 FILLER_14_31
*449 FILLER_14_39
*450 FILLER_14_47
*451 FILLER_14_55
*452 FILLER_14_63
*453 FILLER_14_71
*454 FILLER_14_79
*455 FILLER_14_87
*456 FILLER_14_89
*457 FILLER_14_91
*458 FILLER_14_99
*459 FILLER_14_107
*460 FILLER_14_109
*461 FILLER_14_147
*462 FILLER_14_155
*463 FILLER_14_163
*464 FILLER_14_167
*465 FILLER_15_4
*466 FILLER_15_12
*467 FILLER_15_20
*468 FILLER_15_28
*469 FILLER_15_36
*470 FILLER_15_44
*471 FILLER_15_52
*472 FILLER_15_61
*473 FILLER_15_69
*474 FILLER_15_77
*475 FILLER_15_85
*476 FILLER_15_93
*477 FILLER_15_101
*478 FILLER_15_109
*479 FILLER_15_147
*480 FILLER_15_155
*481 FILLER_15_163
*482 FILLER_15_167
*483 FILLER_16_4
*484 FILLER_16_12
*485 FILLER_16_20
*486 FILLER_16_28
*487 FILLER_16_31
*488 FILLER_16_39
*489 FILLER_16_47
*490 FILLER_16_55
*491 FILLER_16_63
*492 FILLER_16_71
*493 FILLER_16_79
*494 FILLER_16_87
*495 FILLER_16_89
*496 FILLER_16_91
*497 FILLER_16_99
*498 FILLER_16_107
*499 FILLER_16_109
*500 FILLER_16_147
*501 FILLER_16_155
*502 FILLER_16_163
*503 FILLER_16_167
*504 FILLER_17_4
*505 FILLER_17_12
*506 FILLER_17_20
*507 FILLER_17_28
*508 FILLER_17_36
*509 FILLER_17_44
*510 FILLER_17_52
*511 FILLER_17_61
*512 FILLER_17_69
*513 FILLER_17_77
*514 FILLER_17_85
*515 FILLER_17_93
*516 FILLER_17_101
*517 FILLER_17_109
*518 FILLER_17_147
*519 FILLER_17_155
*520 FILLER_17_163
*521 FILLER_17_167
*522 FILLER_18_4
*523 FILLER_18_12
*524 FILLER_18_20
*525 FILLER_18_28
*526 FILLER_18_31
*527 FILLER_18_39
*528 FILLER_18_47
*529 FILLER_18_55
*530 FILLER_18_63
*531 FILLER_18_71
*532 FILLER_18_79
*533 FILLER_18_87
*534 FILLER_18_89
*535 FILLER_18_91
*536 FILLER_18_99
*537 FILLER_18_107
*538 FILLER_18_109
*539 FILLER_18_147
*540 FILLER_18_155
*541 FILLER_18_163
*542 FILLER_18_167
*543 FILLER_19_4
*544 FILLER_19_12
*545 FILLER_19_20
*546 FILLER_19_28
*547 FILLER_19_36
*548 FILLER_19_44
*549 FILLER_19_52
*550 FILLER_19_61
*551 FILLER_19_69
*552 FILLER_19_77
*553 FILLER_19_85
*554 FILLER_19_93
*555 FILLER_19_101
*556 FILLER_19_109
*557 FILLER_19_147
*558 FILLER_19_155
*559 FILLER_19_163
*560 FILLER_19_167
*561 FILLER_20_4
*562 FILLER_20_12
*563 FILLER_20_20
*564 FILLER_20_28
*565 FILLER_20_31
*566 FILLER_20_39
*567 FILLER_20_47
*568 FILLER_20_55
*569 FILLER_20_63
*570 FILLER_20_71
*571 FILLER_20_79
*572 FILLER_20_87
*573 FILLER_20_89
*574 FILLER_20_91
*575 FILLER_20_99
*576 FILLER_20_107
*577 FILLER_20_109
*578 FILLER_20_147
*579 FILLER_20_155
*580 FILLER_20_163
*581 FILLER_20_167
*582 FILLER_21_4
*583 FILLER_21_12
*584 FILLER_21_20
*585 FILLER_21_28
*586 FILLER_21_36
*587 FILLER_21_44
*588 FILLER_21_52
*589 FILLER_21_61
*590 FILLER_21_69
*591 FILLER_21_77
*592 FILLER_21_85
*593 FILLER_21_93
*594 FILLER_21_101
*595 FILLER_21_109
*596 FILLER_21_147
*597 FILLER_21_155
*598 FILLER_21_163
*599 FILLER_21_167
*600 FILLER_22_4
*601 FILLER_22_12
*602 FILLER_22_20
*603 FILLER_22_28
*604 FILLER_22_31
*605 FILLER_22_39
*606 FILLER_22_47
*607 FILLER_22_55
*608 FILLER_22_63
*609 FILLER_22_71
*610 FILLER_22_79
*611 FILLER_22_87
*612 FILLER_22_89
*613 FILLER_22_91
*614 FILLER_22_99
*615 FILLER_22_107
*616 FILLER_22_109
*617 FILLER_22_147
*618 FILLER_22_155
*619 FILLER_22_163
*620 FILLER_22_167
*621 FILLER_23_4
*622 FILLER_23_12
*623 FILLER_23_20
*624 FILLER_23_28
*625 FILLER_23_36
*626 FILLER_23_44
*627 FILLER_23_52
*628 FILLER_23_61
*629 FILLER_23_69
*630 FILLER_23_77
*631 FILLER_23_85
*632 FILLER_23_93
*633 FILLER_23_101
*634 FILLER_23_109
*635 FILLER_23_147
*636 FILLER_23_155
*637 FILLER_23_163
*638 FILLER_23_167
*639 FILLER_24_4
*640 FILLER_24_12
*641 FILLER_24_20
*642 FILLER_24_28
*643 FILLER_24_31
*644 FILLER_24_39
*645 FILLER_24_47
*646 FILLER_24_55
*647 FILLER_24_63
*648 FILLER_24_71
*649 FILLER_24_79
*650 FILLER_24_87
*651 FILLER_24_89
*652 FILLER_24_91
*653 FILLER_24_99
*654 FILLER_24_107
*655 FILLER_24_109
*656 FILLER_24_147
*657 FILLER_24_155
*658 FILLER_24_163
*659 FILLER_24_167
*660 FILLER_25_4
*661 FILLER_25_12
*662 FILLER_25_20
*663 FILLER_25_28
*664 FILLER_25_31
*665 FILLER_25_39
*666 FILLER_25_47
*667 FILLER_25_55
*668 FILLER_25_59
*669 FILLER_25_61
*670 FILLER_25_69
*671 FILLER_25_77
*672 FILLER_25_85
*673 FILLER_25_89
*674 FILLER_25_91
*675 FILLER_25_99
*676 FILLER_25_107
*677 FILLER_25_115
*678 FILLER_25_119
*679 FILLER_25_121
*680 FILLER_25_129
*681 FILLER_25_137
*682 FILLER_25_145
*683 FILLER_25_149
*684 FILLER_25_151
*685 FILLER_25_159
*686 FILLER_25_167
*687 FILLER_26_4
*688 FILLER_26_12
*689 FILLER_26_20
*690 FILLER_26_28
*691 FILLER_26_31
*692 FILLER_26_39
*693 FILLER_26_47
*694 FILLER_26_55
*695 FILLER_26_63
*696 FILLER_26_71
*697 FILLER_26_79
*698 FILLER_26_87
*699 FILLER_26_89
*700 FILLER_26_91
*701 FILLER_26_99
*702 FILLER_26_107
*703 FILLER_26_115
*704 FILLER_26_123
*705 FILLER_26_131
*706 FILLER_26_139
*707 FILLER_26_147
*708 FILLER_26_149
*709 FILLER_26_151
*710 FILLER_26_159
*711 FILLER_26_167
*712 FILLER_27_4
*713 FILLER_27_12
*714 FILLER_27_20
*715 FILLER_27_28
*716 FILLER_27_36
*717 FILLER_27_44
*718 FILLER_27_52
*719 FILLER_27_61
*720 FILLER_27_69
*721 FILLER_27_77
*722 FILLER_27_85
*723 FILLER_27_93
*724 FILLER_27_101
*725 FILLER_27_109
*726 FILLER_27_117
*727 FILLER_27_119
*728 FILLER_27_121
*729 FILLER_27_129
*730 FILLER_27_137
*731 FILLER_27_145
*732 FILLER_27_153
*733 FILLER_27_161
*734 FILLER_28_4
*735 FILLER_28_12
*736 FILLER_28_20
*737 FILLER_28_28
*738 FILLER_28_31
*739 FILLER_28_39
*740 FILLER_28_47
*741 FILLER_28_55
*742 FILLER_28_59
*743 FILLER_28_61
*744 FILLER_28_69
*745 FILLER_28_77
*746 FILLER_28_85
*747 FILLER_28_89
*748 FILLER_28_91
*749 FILLER_28_99
*750 FILLER_28_107
*751 FILLER_28_115
*752 FILLER_28_119
*753 FILLER_28_121
*754 FILLER_28_129
*755 FILLER_28_137
*756 FILLER_28_145
*757 FILLER_28_149
*758 FILLER_28_151
*759 FILLER_28_159
*760 FILLER_28_167

*PORTS
VDD I
VSS I
out O
vref I

*D_NET *4 0.0122251
*CONN
*P out O
*I *6:OUT I *D onebitADC
*CAP
1 out 0.000805807
2 *6:OUT 0.00125425
3 *4:15 0.00357556
4 *4:14 0.0040525
5 *4:11 0.002537
*RES
1 out *4:11 26.0443 
2 *4:11 *4:14 44.6003 
3 *4:14 *4:15 62.4588 
4 *4:15 *6:OUT 24.0196 
*END

*D_NET *5 0.00875918
*CONN
*P vref I
*I *6:VREF I *D onebitADC
*CAP
1 vref 0.000947905
2 *6:VREF 0.0012994
3 *5:14 0.00214596
4 *5:10 0.00213228
5 *5:7 0.00223363
*RES
1 vref *5:7 29.293 
2 *5:7 *5:10 35.172 
3 *5:10 *5:14 25.5971 
4 *5:14 *6:VREF 28.3933 
*END
